<?xml version="1.0" encoding="UTF-8"?>

<!-- generated on 2024-05-09 09:38:46 by Eclipse SUMO polyconvert Version v1_19_0+1520-dc4640af2ac
<configuration xmlns:xsi="http://www.w3.org/2001/XMLSchema-instance" xsi:noNamespaceSchemaLocation="http://sumo.dlr.de/xsd/polyconvertConfiguration.xsd">

    <input>
        <net-file value="mapa.net.xml"/>
        <osm-files value="mapa.osm"/>
    </input>

    <output>
        <output-file value="mapa.poly.xml"/>
    </output>

    <report>
        <verbose value="true"/>
    </report>

</configuration>
-->

<additional xmlns:xsi="http://www.w3.org/2001/XMLSchema-instance" xsi:noNamespaceSchemaLocation="http://sumo.dlr.de/xsd/additional_file.xsd">
    <location netOffset="-720587.37,322497.68" convBoundary="-6092.15,-116.84,3419.17,4164.52" origBoundary="-79.070332,-2.916986,-78.984747,-2.878394" projParameter="+proj=utm +zone=17 +ellps=WGS84 +datum=WGS84 +units=m +no_defs"/>

    <poly id="1021305308" type="landuse" color="194,194,130" fill="0" layer="-3.00" shape="187.954564,471.194776 220.755859,387.700481 245.742961,362.793598 281.817150,338.176836 353.369977,316.970319 407.181559,286.670551 427.108474,267.744919 445.438032,244.740960 466.242387,181.142433 486.443953,141.445610 516.490537,110.247587 598.863653,76.844633 615.079195,72.060175"/>
    <poly id="1025392997" type="building" color="255,230,230" fill="1" layer="-1.00" shape="431.087088,348.354205 443.185271,348.166960 442.933933,331.765429 435.328083,331.878389 435.427716,337.928031 430.935365,337.991257 431.087088,348.354205"/>
    <poly id="1032572687" type="school" color="237,199,199" fill="1" layer="-2.00" shape="1470.162094,1373.177622 1495.225594,1397.653484 1529.970015,1369.123493 1505.068928,1342.169896 1470.162094,1373.177622"/>
    <poly id="105586306" type="building" color="255,230,230" fill="1" layer="-1.00" shape="1863.939079,740.574568 1895.453222,771.829771 1907.352964,759.996495 1875.849917,728.730215 1863.939079,740.574568"/>
    <poly id="108019209" type="school" color="237,199,199" fill="1" layer="-2.00" shape="1740.692541,1436.150975 1756.818047,1506.055301 1856.834339,1481.889076 1841.335719,1408.090470 1740.692541,1436.150975"/>
    <poly id="1081346190" type="building" color="255,230,230" fill="1" layer="-1.00" shape="1947.834940,1874.139853 1938.201779,1828.368135 2052.562260,1797.230808 2058.430231,1820.402379 2077.932082,1818.730983 2079.300156,1856.609381 1998.076291,1874.338583 1995.565624,1863.172334 1947.834940,1874.139853"/>
    <poly id="1081356682" type="leisure" color="207,245,201" fill="1" layer="-2.00" shape="501.977147,1630.193537 510.634506,1620.921101 512.232078,1618.805833 517.335416,1612.039203 521.312150,1603.294813 521.183272,1586.915182 472.482522,1488.644255 463.634456,1477.986917 448.946224,1472.438505 436.937047,1472.713999 425.077468,1475.853767 407.825475,1485.782788 400.421641,1493.316596 395.742152,1500.812435 393.126574,1512.120343 393.216639,1525.403234 441.671863,1623.221129 454.794142,1636.215682 462.504099,1638.347771 474.192795,1639.200969 481.741902,1638.391381 501.977147,1630.193537"/>
    <poly id="1081356682#1" type="sport" color="79,230,125" fill="1" layer="-2.00" shape="501.977147,1630.193537 510.634506,1620.921101 512.232078,1618.805833 517.335416,1612.039203 521.312150,1603.294813 521.183272,1586.915182 472.482522,1488.644255 463.634456,1477.986917 448.946224,1472.438505 436.937047,1472.713999 425.077468,1475.853767 407.825475,1485.782788 400.421641,1493.316596 395.742152,1500.812435 393.126574,1512.120343 393.216639,1525.403234 441.671863,1623.221129 454.794142,1636.215682 462.504099,1638.347771 474.192795,1639.200969 481.741902,1638.391381 501.977147,1630.193537"/>
    <poly id="1081356683" type="leisure" color="207,245,201" fill="1" layer="-2.00" shape="449.994433,1619.600945 458.682542,1627.825373 469.750381,1629.741420 480.002764,1629.557501 489.248552,1626.079471 497.126049,1622.305226 502.709630,1616.721173 507.857993,1610.264144 512.179079,1601.309009 512.124583,1589.286887 482.830214,1530.023626 464.472431,1492.894317 458.031775,1485.351664 447.571875,1481.344217 437.786799,1481.671100 428.416859,1484.098651 421.651240,1487.793522 413.853830,1492.839526 408.548063,1498.312488 404.211993,1505.066705 402.457595,1512.856022 402.331229,1523.208396 447.081744,1613.711087 449.994433,1619.600945"/>
    <poly id="1081356683#1" type="sport" color="79,230,125" fill="1" layer="-2.00" shape="449.994433,1619.600945 458.682542,1627.825373 469.750381,1629.741420 480.002764,1629.557501 489.248552,1626.079471 497.126049,1622.305226 502.709630,1616.721173 507.857993,1610.264144 512.179079,1601.309009 512.124583,1589.286887 482.830214,1530.023626 464.472431,1492.894317 458.031775,1485.351664 447.571875,1481.344217 437.786799,1481.671100 428.416859,1484.098651 421.651240,1487.793522 413.853830,1492.839526 408.548063,1498.312488 404.211993,1505.066705 402.457595,1512.856022 402.331229,1523.208396 447.081744,1613.711087 449.994433,1619.600945"/>
    <poly id="1081356684" type="leisure" color="207,245,201" fill="1" layer="-2.00" shape="449.994433,1619.600945 512.124583,1589.286887 482.830214,1530.023626 464.472431,1492.894317 402.331229,1523.208396 447.081744,1613.711087 449.994433,1619.600945"/>
    <poly id="1081356684#1" type="sport" color="79,230,125" fill="1" layer="-2.00" shape="449.994433,1619.600945 512.124583,1589.286887 482.830214,1530.023626 464.472431,1492.894317 402.331229,1523.208396 447.081744,1613.711087 449.994433,1619.600945"/>
    <poly id="1081356685" type="leisure" color="207,245,201" fill="1" layer="-2.00" shape="1095.080514,1114.448807 1105.949206,1110.636028 1110.936945,1107.707373 1116.077767,1103.307463 1122.904616,1096.515608 1127.836360,1080.768468 1117.869974,972.132275 1113.376616,959.056189 1101.604474,948.724789 1090.266184,944.785323 1077.931510,943.347184 1068.703266,944.137684 1058.388601,946.821367 1048.777641,951.284472 1041.737024,956.661020 1035.271105,966.327844 1030.656048,978.789587 1041.312728,1087.955399 1048.980609,1104.045270 1060.301994,1111.004168 1073.420512,1115.515625 1085.018800,1115.550453 1095.080514,1114.448807"/>
    <poly id="1081356685#1" type="sport" color="79,230,125" fill="1" layer="-2.00" shape="1095.080514,1114.448807 1105.949206,1110.636028 1110.936945,1107.707373 1116.077767,1103.307463 1122.904616,1096.515608 1127.836360,1080.768468 1117.869974,972.132275 1113.376616,959.056189 1101.604474,948.724789 1090.266184,944.785323 1077.931510,943.347184 1068.703266,944.137684 1058.388601,946.821367 1048.777641,951.284472 1041.737024,956.661020 1035.271105,966.327844 1030.656048,978.789587 1041.312728,1087.955399 1048.980609,1104.045270 1060.301994,1111.004168 1073.420512,1115.515625 1085.018800,1115.550453 1095.080514,1114.448807"/>
    <poly id="1081356686" type="leisure" color="207,245,201" fill="1" layer="-2.00" shape="1050.384697,1086.822323 1055.585585,1097.552434 1065.270043,1103.220196 1074.939399,1106.631738 1084.825104,1106.614287 1093.819373,1105.558766 1100.741899,1102.571396 1107.840139,1098.333931 1115.067171,1091.463949 1119.284003,1080.186328 1108.864790,973.298424 1105.523437,963.980716 1097.159217,956.585265 1087.879576,953.460605 1078.247846,952.460092 1069.520158,953.338188 1061.517615,955.542207 1054.606688,958.795001 1048.154436,963.606448 1043.762667,970.272342 1039.965531,979.923393 1050.384697,1086.822323"/>
    <poly id="1081356686#1" type="sport" color="79,230,125" fill="1" layer="-2.00" shape="1050.384697,1086.822323 1055.585585,1097.552434 1065.270043,1103.220196 1074.939399,1106.631738 1084.825104,1106.614287 1093.819373,1105.558766 1100.741899,1102.571396 1107.840139,1098.333931 1115.067171,1091.463949 1119.284003,1080.186328 1108.864790,973.298424 1105.523437,963.980716 1097.159217,956.585265 1087.879576,953.460605 1078.247846,952.460092 1069.520158,953.338188 1061.517615,955.542207 1054.606688,958.795001 1048.154436,963.606448 1043.762667,970.272342 1039.965531,979.923393 1050.384697,1086.822323"/>
    <poly id="1081356687" type="leisure" color="207,245,201" fill="1" layer="-2.00" shape="1050.384697,1086.822323 1119.284003,1080.186328 1108.864790,973.298424 1039.965531,979.923393 1050.384697,1086.822323"/>
    <poly id="1081356687#1" type="sport" color="79,230,125" fill="1" layer="-2.00" shape="1050.384697,1086.822323 1119.284003,1080.186328 1108.864790,973.298424 1039.965531,979.923393 1050.384697,1086.822323"/>
    <poly id="1083557187" type="amenity" color="237,199,199" fill="1" layer="-1.00" shape="527.457985,1367.329988 527.565332,1365.139919 517.463315,1349.651574 539.534909,1336.042119 556.516789,1355.887057 527.457985,1367.329988"/>
    <poly id="1083557187#1" type="building" color="255,230,230" fill="1" layer="-1.00" shape="527.457985,1367.329988 527.565332,1365.139919 517.463315,1349.651574 539.534909,1336.042119 556.516789,1355.887057 527.457985,1367.329988"/>
    <poly id="1083557523" type="parking" color="184,184,179" fill="1" layer="-1.00" shape="659.474853,1430.250287 681.970860,1417.679700 698.613778,1447.092147 676.117764,1459.662735 659.474853,1430.250287"/>
    <poly id="1083557524" type="parking" color="184,184,179" fill="1" layer="-1.00" shape="714.555170,1381.212781 692.170591,1349.697988 729.755927,1330.486921 743.108778,1367.038864 714.555170,1381.212781"/>
    <poly id="108536189" type="building" color="255,230,230" fill="0" layer="-1.00" shape="607.770600,1666.450244 613.313563,1675.708780 600.360963,1683.340837 604.621366,1690.467049 617.351779,1682.957042 621.980233,1690.701966 609.238699,1698.211993 613.621792,1705.548129 626.829884,1697.760782 633.711221,1709.273207 624.402242,1714.764277 617.670450,1718.735595 613.990001,1712.581644 590.117564,1726.592397 606.533298,1753.306626 615.209079,1748.181653 608.573105,1737.078015 663.438315,1704.708449 657.215001,1694.300867 656.281870,1694.844448 644.206857,1701.966207 623.016383,1666.534035 619.012480,1659.827653"/>
    <poly id="108536191" type="amenity" color="237,199,199" fill="1" layer="-1.00" shape="697.855436,1673.348091 707.319898,1667.746137 727.648176,1655.533302 722.983647,1646.251100 733.102536,1639.707889 723.004367,1632.746790 716.472557,1630.291901 713.586636,1633.305301 707.951619,1628.614711 692.878034,1637.920579 695.755568,1642.781920 685.459129,1649.535579 687.822845,1653.092743 686.735725,1654.598817 697.855436,1673.348091"/>
    <poly id="108536191#1" type="building" color="255,230,230" fill="1" layer="-1.00" shape="697.855436,1673.348091 707.319898,1667.746137 727.648176,1655.533302 722.983647,1646.251100 733.102536,1639.707889 723.004367,1632.746790 716.472557,1630.291901 713.586636,1633.305301 707.951619,1628.614711 692.878034,1637.920579 695.755568,1642.781920 685.459129,1649.535579 687.822845,1653.092743 686.735725,1654.598817 697.855436,1673.348091"/>
    <poly id="108536192" type="building" color="255,230,230" fill="1" layer="-1.00" shape="730.016661,1712.366531 727.730025,1708.377890 739.405651,1701.787703 752.425461,1694.432009 747.071934,1685.405398 733.862228,1692.274786 723.785538,1697.523898 707.319898,1667.746137 697.855436,1673.348091 700.397910,1677.380522 701.947955,1679.855237 697.204399,1682.540104 710.823818,1706.295167 705.758090,1709.157560 711.246006,1718.725875 716.156190,1715.941176 717.996700,1719.178522 730.016661,1712.366531"/>
    <poly id="108536194" type="building" color="255,230,230" fill="1" layer="-1.00" shape="585.051786,1647.201547 593.538789,1642.231742 595.802849,1646.032402 598.022312,1649.766780 604.820799,1645.784284 599.723825,1637.199625 596.645590,1632.028956 601.077938,1629.433121 592.757761,1615.445789 588.092146,1618.185814 575.689958,1597.337400 563.537119,1604.459291 560.648884,1606.156550 564.864745,1613.249658 585.051786,1647.201547"/>
    <poly id="108536195" type="building" color="255,230,230" fill="1" layer="-1.00" shape="548.723931,1622.723278 557.858275,1638.080619 568.910966,1656.675168 585.051786,1647.201547 564.864745,1613.249658 548.723931,1622.723278"/>
    <poly id="108536196" type="building" color="255,230,230" fill="1" layer="-1.00" shape="575.967909,1799.723880 586.997778,1817.986679 644.728474,1783.599192 646.222918,1786.074006 659.197617,1778.353430 657.446633,1775.436667 665.811309,1770.456017 657.937579,1757.407993 648.217657,1763.187347 645.150676,1758.094077 616.290880,1775.276761 619.324363,1780.292670 612.281594,1784.485732 609.448836,1779.790209 575.967909,1799.723880"/>
    <poly id="108536197" type="building" color="255,230,230" fill="1" layer="-1.00" shape="477.475182,1463.208545 501.623564,1492.331291 529.616967,1469.432103 505.468576,1440.309360 493.842601,1449.819286 477.475182,1463.208545"/>
    <poly id="108536317" type="building" color="255,230,230" fill="1" layer="-1.00" shape="578.385383,1555.559032 598.509909,1553.964176 616.533042,1552.538912 616.180460,1548.071290 627.143321,1547.200384 626.609025,1540.576381 577.487389,1544.467430 578.385383,1555.559032"/>
    <poly id="108574197" type="leisure" color="207,245,201" fill="1" layer="-2.00" shape="551.069555,1666.594175 561.756598,1660.636166 551.471872,1642.427367 540.784832,1648.385375 551.069555,1666.594175"/>
    <poly id="108574199" type="parking" color="184,184,179" fill="1" layer="-1.00" shape="498.470388,1748.176688 512.388399,1739.381654 498.193571,1717.209183 484.275583,1726.015277 498.470388,1748.176688"/>
    <poly id="108574201" type="leisure" color="207,245,201" fill="1" layer="-2.00" shape="534.516508,1530.153942 514.680569,1506.144388 500.000914,1518.126059 519.847949,1542.124536 534.516508,1530.153942"/>
    <poly id="108574201#1" type="sport" color="79,230,125" fill="1" layer="-2.00" shape="534.516508,1530.153942 514.680569,1506.144388 500.000914,1518.126059 519.847949,1542.124536 534.516508,1530.153942"/>
    <poly id="108574215" type="building" color="255,230,230" fill="1" layer="-1.00" shape="664.763612,1598.375210 676.150667,1592.106272 679.876516,1598.779962 691.152467,1592.566518 679.941461,1572.490209 668.887680,1578.570541 671.587234,1583.399015 659.977994,1589.790004 664.763612,1598.375210"/>
    <poly id="108574216" type="building" color="255,230,230" fill="1" layer="-1.00" shape="452.127238,1725.905861 471.078351,1714.668790 481.909298,1708.334501 471.670994,1691.220559 442.145438,1709.211747 452.127238,1725.905861"/>
    <poly id="108574218" type="parking" color="184,184,179" fill="1" layer="-1.00" shape="730.774123,1738.389405 746.547492,1728.628848 736.377452,1712.421702 720.604106,1722.193318 730.774123,1738.389405"/>
    <poly id="108574220" type="parking" color="184,184,179" fill="1" layer="-1.00" shape="786.105123,1642.114180 794.014994,1637.775793 788.138995,1628.849643 768.096081,1601.013685 757.969049,1615.564365 772.911622,1632.913348 776.133732,1631.370336 778.518077,1634.009483 779.555609,1635.921039 778.968719,1637.326694 756.659504,1623.375039 750.026391,1632.865142 755.892188,1635.995863 775.019840,1649.256339 786.105123,1642.114180"/>
    <poly id="108574222" type="building" color="255,230,230" fill="1" layer="-1.00" shape="754.074124,1620.238545 731.787682,1606.585469 722.606261,1621.366740 744.892721,1635.030878 754.074124,1620.238545"/>
    <poly id="108574222#1" type="shop" color="237,199,255" fill="1" layer="-1.00" shape="754.074124,1620.238545 731.787682,1606.585469 722.606261,1621.366740 744.892721,1635.030878 754.074124,1620.238545"/>
    <poly id="108574226" type="building" color="255,230,230" fill="1" layer="-1.00" shape="767.038084,1656.979214 776.155669,1662.791797 782.863375,1670.411402 787.094091,1679.616949 788.523972,1689.634806 765.218307,1690.803937 766.112077,1693.169207 755.693446,1700.000506 752.425461,1694.432009 747.071934,1685.405398 743.770550,1679.814841 747.413863,1677.496888 755.056699,1673.070496 756.428008,1675.081005 767.038084,1656.979214"/>
    <poly id="108574229" type="building" color="255,230,230" fill="1" layer="-1.00" shape="591.653787,1765.487725 571.243179,1730.872616 563.478641,1735.653125 559.657561,1738.059861 561.999673,1741.982045 564.832331,1746.622266 538.982091,1761.532338 553.147223,1785.784144 563.211829,1779.982076 574.387772,1799.107297 604.548273,1781.723264 602.797135,1778.718021 609.851257,1774.657660 603.192499,1763.244382 598.715627,1765.818172 596.786063,1762.525683 591.653787,1765.487725"/>
    <poly id="108574232" type="building" color="255,230,230" fill="1" layer="-1.00" shape="497.883970,1692.899854 505.022898,1705.462525 519.898024,1697.119264 517.912494,1693.616735 522.533904,1691.031632 524.497078,1694.467842 555.147193,1677.293087 546.524644,1662.089684 515.663467,1679.386470 518.396334,1684.192766 514.041553,1686.633619 511.342143,1681.882565 506.298600,1684.711728 507.804451,1687.352421 497.883970,1692.899854"/>
    <poly id="108574232#1" type="leisure" color="207,245,201" fill="1" layer="-2.00" shape="497.883970,1692.899854 505.022898,1705.462525 519.898024,1697.119264 517.912494,1693.616735 522.533904,1691.031632 524.497078,1694.467842 555.147193,1677.293087 546.524644,1662.089684 515.663467,1679.386470 518.396334,1684.192766 514.041553,1686.633619 511.342143,1681.882565 506.298600,1684.711728 507.804451,1687.352421 497.883970,1692.899854"/>
    <poly id="108574233" type="building" color="255,230,230" fill="1" layer="-1.00" shape="548.811112,1571.117164 556.060423,1570.562476 565.388910,1569.849291 564.398943,1557.043551 564.159976,1553.947171 547.582161,1555.203985 548.811112,1571.117164"/>
    <poly id="108579633" type="amenity" color="237,199,199" fill="1" layer="-1.00" shape="1064.595057,1514.864719 1093.904998,1507.059963 1085.344561,1476.682085 1077.198276,1447.840824 1048.147624,1457.635934 1064.595057,1514.864719"/>
    <poly id="108579633#1" type="building" color="255,230,230" fill="1" layer="-1.00" shape="1064.595057,1514.864719 1093.904998,1507.059963 1085.344561,1476.682085 1077.198276,1447.840824 1048.147624,1457.635934 1064.595057,1514.864719"/>
    <poly id="108579636" type="building" color="255,230,230" fill="1" layer="-1.00" shape="1094.990353,1510.862701 1101.904713,1509.534365 1134.631306,1503.305158 1133.268533,1499.834710 1120.199211,1466.489631 1085.344561,1476.682085 1093.904998,1507.059963 1094.990353,1510.862701"/>
    <poly id="109089287" type="leisure" color="207,245,201" fill="1" layer="-2.00" shape="649.448785,1615.932261 619.033550,1633.869786 610.735161,1638.595941 607.286921,1644.342147 604.820799,1645.784284 599.723825,1637.199625 596.645590,1632.028956 601.077938,1629.433121 592.757761,1615.445789 588.092146,1618.185814 575.689958,1597.337400 563.537119,1604.459291 560.648884,1606.156550 559.172773,1601.458645 556.584101,1577.474056 553.236989,1577.491002 552.493206,1571.884889 560.221029,1571.528440 561.448269,1586.468343 573.335806,1586.569098 574.736683,1592.749176 603.734095,1590.618898 618.243669,1589.409957 639.424551,1587.780059 649.448785,1615.932261"/>
    <poly id="109089309" type="parking" color="184,184,179" fill="1" layer="-1.00" shape="589.938915,1827.404632 662.721182,1783.821938 668.041943,1793.191469 635.216121,1818.897331 599.560681,1841.699366 589.938915,1827.404632"/>
    <poly id="109089316" type="parking" color="184,184,179" fill="1" layer="-1.00" shape="469.002425,1463.621604 456.049862,1445.959448 480.487664,1424.670221 497.380727,1444.603804 469.002425,1463.621604"/>
    <poly id="109089335" type="parking" color="184,184,179" fill="1" layer="-1.00" shape="530.107494,1470.139080 547.470238,1491.564941 543.294962,1494.901344 535.739163,1485.579994 503.802734,1511.096275 494.006934,1499.002803 530.107494,1470.139080"/>
    <poly id="109089340" type="building" color="255,230,230" fill="1" layer="-1.00" shape="445.307952,1464.968346 444.730407,1459.041205 451.654424,1450.568134 463.681243,1466.650339 445.307952,1464.968346"/>
    <poly id="109089358" type="leisure" color="207,245,201" fill="1" layer="-2.00" shape="522.509814,1620.391465 531.629217,1614.602113 545.701151,1636.442992 536.581765,1642.243404 522.509814,1620.391465"/>
    <poly id="1097346129" type="building" color="255,230,230" fill="1" layer="-1.00" shape="572.832085,1325.531820 570.477600,1327.217084 577.433329,1336.771744 567.815500,1343.667992 551.373651,1321.068165 563.334823,1312.475613 572.832085,1325.531820"/>
    <poly id="1097346130" type="building" color="255,230,230" fill="1" layer="-1.00" shape="558.771358,1278.474141 560.786665,1286.256834 552.672696,1288.339336 554.475243,1295.281844 560.910869,1293.644697 562.635089,1300.310843 547.240741,1304.242117 542.963796,1287.714944 548.565791,1286.289404 547.300626,1281.403111 558.771358,1278.474141"/>
    <poly id="1097346131" type="building" color="255,230,230" fill="1" layer="-1.00" shape="566.566997,1272.432718 561.213614,1276.114062 559.396439,1273.496040 549.389377,1280.370854 543.804100,1272.340064 552.289548,1266.507568 553.683093,1268.518036 560.558106,1263.805434 566.566997,1272.432718"/>
    <poly id="1097346133" type="building" color="255,230,230" fill="1" layer="-1.00" shape="595.914219,1298.504785 591.034641,1287.077331 599.135155,1283.667650 604.014734,1295.095103 595.914219,1298.504785"/>
    <poly id="1097346134" type="building" color="255,230,230" fill="1" layer="-1.00" shape="595.732402,1302.608366 614.878153,1294.600399 624.648785,1317.654368 614.770331,1321.786080 613.162389,1318.006389 603.906208,1321.882624 595.732402,1302.608366"/>
    <poly id="1097346135" type="building" color="255,230,230" fill="1" layer="-1.00" shape="621.675538,1302.640115 625.464096,1300.720065 621.123474,1292.244682 630.855983,1287.327965 640.262542,1305.704193 626.741473,1312.540961 621.675538,1302.640115"/>
    <poly id="1097346136" type="building" color="255,230,230" fill="1" layer="-1.00" shape="644.562057,1284.516710 655.574867,1280.449356 661.809207,1297.116869 641.883903,1304.473678 638.230462,1294.714125 647.142953,1291.424670 644.562057,1284.516710"/>
    <poly id="1097346137" type="building" color="255,230,230" fill="1" layer="-1.00" shape="683.948070,1271.197463 684.696210,1279.269952 671.231970,1280.488144 658.714645,1270.047420 657.845685,1262.826765 656.565538,1255.750615 686.896172,1252.987495 687.825896,1263.138946 692.562283,1262.710324 693.265166,1270.340492 683.948070,1271.197463"/>
    <poly id="1097346138" type="building" color="255,230,230" fill="1" layer="-1.00" shape="595.268915,1348.851056 605.062603,1366.054245 583.412744,1379.198451 571.294568,1361.767093 595.268915,1348.851056"/>
    <poly id="1097346139" type="building" color="255,230,230" fill="1" layer="-1.00" shape="583.412744,1379.198451 605.062603,1366.054245 609.757583,1373.688444 622.820812,1365.757548 630.939454,1378.959964 612.610937,1390.085409 598.592375,1398.582043 596.226340,1400.024007 583.412744,1379.198451"/>
    <poly id="1097346140" type="building" color="255,230,230" fill="1" layer="-1.00" shape="604.970741,1408.635422 619.490407,1400.536066 612.610937,1390.085409 598.592375,1398.582043 604.970741,1408.635422"/>
    <poly id="1097346141" type="building" color="255,230,230" fill="1" layer="-1.00" shape="640.409772,1395.654964 645.309421,1393.213138 646.983285,1396.539254 656.882586,1391.611185 658.913537,1395.644513 669.657220,1390.294677 675.750057,1402.383599 650.218519,1415.092250 640.409772,1395.654964"/>
    <poly id="1097346142" type="building" color="255,230,230" fill="1" layer="-1.00" shape="610.209844,1415.837325 632.263887,1404.882286 634.963810,1409.920897 613.143559,1421.030364 610.209844,1415.837325"/>
    <poly id="1097346143" type="building" color="255,230,230" fill="1" layer="-1.00" shape="617.141494,1342.209735 626.272248,1361.836231 613.027829,1367.909366 606.564847,1354.007256 613.387050,1350.876327 610.730401,1345.151921 617.141494,1342.209735"/>
    <poly id="1097346144" type="building" color="255,230,230" fill="1" layer="-1.00" shape="642.205944,1386.339277 650.341174,1377.377412 657.442993,1381.479232 648.265810,1392.334194 642.205944,1386.339277"/>
    <poly id="1097346145" type="building" color="255,230,230" fill="1" layer="-1.00" shape="644.770180,1371.149375 638.772920,1375.451214 632.820401,1367.266228 638.817660,1362.964388 644.770180,1371.149375"/>
    <poly id="1097346146" type="building" color="255,230,230" fill="1" layer="-1.00" shape="624.466952,1384.921640 644.818865,1373.538250 649.106403,1377.125205 627.521315,1389.163306 624.466952,1384.921640"/>
    <poly id="1097346147" type="building" color="255,230,230" fill="1" layer="-1.00" shape="620.339544,1396.497669 627.704783,1392.315084 623.521945,1385.033903 619.011711,1387.596702 620.651377,1390.447298 617.785252,1392.067103 620.339544,1396.497669"/>
    <poly id="1097346148" type="building" color="255,230,230" fill="1" layer="-1.00" shape="623.006321,1344.798512 638.358557,1335.890302 647.838984,1352.010161 640.096213,1356.503094 639.367820,1359.645418 633.680150,1362.940252 623.006321,1344.798512"/>
    <poly id="1097346149" type="building" color="255,230,230" fill="1" layer="-1.00" shape="669.620426,1344.130268 656.342434,1350.081810 653.652071,1344.158382 650.071755,1344.352706 645.282748,1333.843071 653.238414,1330.267742 651.664396,1326.808731 656.686693,1324.554707 658.740780,1329.096753 662.107499,1327.586665 669.620426,1344.130268"/>
    <poly id="1097346150" type="building" color="255,230,230" fill="1" layer="-1.00" shape="579.950070,1288.280263 593.160163,1281.665247 594.532695,1284.372532 581.311481,1290.987568 579.950070,1288.280263"/>
    <poly id="1097346151" type="building" color="255,230,230" fill="1" layer="-1.00" shape="613.725166,1233.429542 627.402527,1226.946415 641.376045,1256.031744 627.698680,1262.514871 613.725166,1233.429542"/>
    <poly id="1097357827" type="building" color="255,230,230" fill="1" layer="-1.00" shape="534.423437,1432.980950 547.104825,1454.514582 537.698438,1461.509989 530.132201,1452.575758 533.207838,1449.949128 525.367446,1436.878940 534.423437,1432.980950"/>
    <poly id="1097357828" type="building" color="255,230,230" fill="1" layer="-1.00" shape="545.893027,1423.073133 551.880222,1419.368560 558.329875,1432.020914 552.641968,1435.183021 545.893027,1423.073133"/>
    <poly id="1097357829" type="building" color="255,230,230" fill="1" layer="-1.00" shape="488.368471,1422.787221 511.900493,1404.950293 527.740741,1426.920766 514.328316,1438.634778 513.159391,1437.884754 503.442091,1426.167188 495.467778,1431.788632 488.368471,1422.787221"/>
    <poly id="1097357830" type="building" color="255,230,230" fill="1" layer="-1.00" shape="649.631562,1473.324218 653.686053,1470.861761 650.663765,1465.890077 659.650004,1460.266839 664.958343,1468.895362 651.806236,1476.881713 649.631562,1473.324218"/>
    <poly id="1097949718" type="amenity" color="237,199,199" fill="1" layer="-1.00" shape="683.686630,1489.035855 669.266474,1465.226917 699.692324,1447.034948 714.112489,1470.843885 706.081131,1475.647007 683.686630,1489.035855"/>
    <poly id="1103359609" type="parking" color="184,184,179" fill="1" layer="-1.00" shape="1578.887978,1004.807013 1598.164019,995.028980 1603.052633,992.642413 1606.266111,998.797181 1620.607589,978.012051 1651.969747,1017.684294 1648.506829,1021.384487 1653.581393,1023.532217 1653.068579,1029.085279 1651.999273,1040.644943 1649.366109,1041.943632 1643.077619,1045.040523 1624.559360,1024.324615 1627.702048,1021.896897 1612.903548,1004.370766 1605.306360,1009.427603 1616.184177,1023.332973 1611.443196,1027.455708 1612.468336,1028.637321 1609.415136,1031.363501 1610.707784,1032.898562 1606.200167,1036.932404 1578.887978,1004.807013"/>
    <poly id="1104966565" type="landuse" color="194,194,130" fill="1" layer="-3.00" shape="710.441911,1041.025155 845.926466,1002.065141 855.256034,1001.982323 854.393745,998.555238 853.486918,995.095052 852.912735,991.092338 844.303726,996.206193 709.435574,1037.885886 710.441911,1041.025155"/>
    <poly id="1104968107" type="building" color="255,230,230" fill="1" layer="-1.00" shape="428.008260,784.355689 442.431641,778.468480 430.404134,749.368706 415.969657,755.266995 428.008260,784.355689"/>
    <poly id="1107911866" type="university" color="237,199,199" fill="1" layer="-2.00" shape="1746.083679,355.395217 1747.203884,360.016340 1731.575735,363.749199 1730.668381,360.012504 1733.713986,359.288194 1731.563165,350.399711 1730.118174,350.745138 1728.997989,346.135075 1725.207659,347.037667 1723.124069,338.436627 1739.063436,334.625794 1744.216323,355.851994 1746.083679,355.395217"/>
    <poly id="1107911867" type="parking" color="184,184,179" fill="1" layer="-1.00" shape="1739.063436,334.625794 1732.107823,306.412828 1716.101995,310.367561 1723.124069,338.436627 1739.063436,334.625794"/>
    <poly id="1110327670" type="building" color="255,230,230" fill="1" layer="-1.00" shape="1279.670819,1553.704302 1264.578128,1526.965625 1254.705970,1509.474994 1277.678358,1495.874845 1298.855546,1542.532986 1279.670819,1553.704302"/>
    <poly id="1110327670#1" type="tourism" color="207,245,201" fill="1" layer="-2.00" shape="1279.670819,1553.704302 1264.578128,1526.965625 1254.705970,1509.474994 1277.678358,1495.874845 1298.855546,1542.532986 1279.670819,1553.704302"/>
    <poly id="1110327671" type="building" color="255,230,230" fill="1" layer="-1.00" shape="1315.698541,1533.975968 1331.393277,1523.784085 1323.224917,1507.672953 1317.209078,1495.152537 1308.693129,1477.416192 1290.129109,1487.436178 1291.032607,1489.005110 1315.698541,1533.975968"/>
    <poly id="1110327671#1" type="tourism" color="207,245,201" fill="1" layer="-2.00" shape="1315.698541,1533.975968 1331.393277,1523.784085 1323.224917,1507.672953 1317.209078,1495.152537 1308.693129,1477.416192 1290.129109,1487.436178 1291.032607,1489.005110 1315.698541,1533.975968"/>
    <poly id="1110327745" type="building" color="255,230,230" fill="1" layer="-1.00" shape="1349.585078,1472.986351 1361.025851,1465.655461 1357.875911,1457.686726 1357.730666,1457.299881 1365.184212,1452.741041 1379.351243,1471.639774 1355.086020,1483.594287 1349.585078,1472.986351"/>