<?xml version="1.0" encoding="UTF-8"?>

<!-- generated on 2024-06-27 10:20:33 by Eclipse SUMO netedit Version v1_19_0+1520-dc4640af2ac
<configuration xmlns:xsi="http://www.w3.org/2001/XMLSchema-instance" xsi:noNamespaceSchemaLocation="http://sumo.dlr.de/xsd/neteditConfiguration.xsd">

    <input>
        <sumo-net-file value="/home/edwin/Documents/OmnetVeinsLab/veins/examples/veins/mapa.net.xml"/>
    </input>

    <output>
        <output-file value="/home/edwin/Documents/OmnetVeinsLab/veins/examples/veins/mapa.net.xml"/>
    </output>

    <processing>
        <geometry.min-radius.fix.railways value="false"/>
        <geometry.max-grade.fix value="false"/>
        <offset.disable-normalization value="true"/>
        <lefthand value="0"/>
    </processing>

    <junctions>
        <no-turnarounds value="true"/>
        <junctions.corner-detail value="5"/>
        <junctions.limit-turn-speed value="5.50"/>
        <rectangular-lane-cut value="0"/>
    </junctions>

    <pedestrian>
        <walkingareas value="0"/>
    </pedestrian>

</configuration>
-->

<net version="1.20" junctionCornerDetail="5" limitTurnSpeed="5.50" xmlns:xsi="http://www.w3.org/2001/XMLSchema-instance" xsi:noNamespaceSchemaLocation="http://sumo.dlr.de/xsd/net_file.xsd">

    <location netOffset="-720587.37,322497.68" convBoundary="0.00,0.00,2882.95,2171.10" origBoundary="-79.070332,-2.916986,-78.984747,-2.878394" projParameter="+proj=utm +zone=17 +ellps=WGS84 +datum=WGS84 +units=m +no_defs"/>

    <type id="highway.cycleway" priority="1" numLanes="1" speed="5.56" allow="bicycle" oneway="0" width="2.00"/>
    <type id="highway.footway" priority="1" numLanes="1" speed="2.78" allow="pedestrian" oneway="1" width="2.00"/>
    <type id="highway.living_street" priority="2" numLanes="1" speed="2.78" disallow="tram rail_urban rail rail_electric rail_fast ship" oneway="0"/>
    <type id="highway.path" priority="1" numLanes="1" speed="5.56" allow="pedestrian bicycle" oneway="0" width="2.00"/>
    <type id="highway.pedestrian" priority="1" numLanes="1" speed="2.78" allow="pedestrian" oneway="1" width="2.00"/>
    <type id="highway.residential" priority="3" numLanes="1" speed="13.89" disallow="tram rail_urban rail rail_electric rail_fast ship" oneway="0"/>
    <type id="highway.secondary" priority="11" numLanes="1" speed="27.78" disallow="tram rail_urban rail rail_electric rail_fast ship" oneway="0"/>
    <type id="highway.secondary_link" priority="6" numLanes="1" speed="22.22" disallow="tram rail_urban rail rail_electric rail_fast ship" oneway="0"/>
    <type id="highway.service" priority="1" numLanes="1" speed="5.56" allow="pedestrian delivery bicycle" oneway="0"/>
    <type id="highway.steps" priority="1" numLanes="1" speed="1.39" allow="pedestrian" oneway="1" width="2.00"/>
    <type id="highway.tertiary" priority="10" numLanes="1" speed="22.22" disallow="tram rail_urban rail rail_electric rail_fast ship" oneway="0"/>
    <type id="highway.tertiary_link" priority="5" numLanes="1" speed="22.22" disallow="tram rail_urban rail rail_electric rail_fast ship" oneway="0"/>

    <edge id=":10019126779_0" function="internal">
        <lane id=":10019126779_0_0" index="0" allow="pedestrian delivery bicycle" speed="3.65" length="4.67" shape="978.74,907.05 978.33,908.44 977.69,909.06 976.81,908.91 975.68,908.01"/>
    </edge>
    <edge id=":10019126780_0" function="internal">
        <lane id=":10019126780_0_0" index="0" allow="pedestrian delivery bicycle" speed="5.27" length="5.25" shape="952.02,832.64 951.40,831.27 950.54,830.39 949.44,830.00 948.10,830.10"/>
    </edge>
    <edge id=":10019126780_1" function="internal">
        <lane id=":10019126780_1_0" index="0" allow="pedestrian delivery bicycle" speed="3.65" length="4.67" shape="952.02,832.64 952.43,831.26 953.07,830.64 953.95,830.78 955.08,831.68"/>
    </edge>
    <edge id=":10019126780_2" function="internal">
        <lane id=":10019126780_2_0" index="0" allow="pedestrian delivery bicycle" speed="4.98" length="5.06" shape="957.21,827.85 955.92,828.39 955.13,829.20 954.85,830.30 955.08,831.68"/>
    </edge>
    <edge id=":10019126780_3" function="internal">
        <lane id=":10019126780_3_0" index="0" disallow="tram rail_urban rail rail_electric rail_fast ship" speed="13.89" length="9.35" shape="957.21,827.85 948.10,830.10"/>
        <lane id=":10019126780_3_1" index="1" disallow="tram rail_urban rail rail_electric rail_fast ship" speed="13.89" length="9.35" shape="956.42,824.75 947.36,826.98"/>
    </edge>
    <edge id=":10048004341_0" function="internal">
        <lane id=":10048004341_0_0" index="0" allow="pedestrian bicycle" speed="5.12" length="4.78" width="2.00" shape="449.29,1447.32 448.68,1446.11 448.52,1444.97 448.79,1443.93 449.51,1442.97"/>
    </edge>
    <edge id=":10048004341_1" function="internal">
        <lane id=":10048004341_1_0" index="0" allow="pedestrian bicycle" speed="2.89" length="2.93" width="2.00" shape="449.29,1447.32 449.23,1446.42 449.48,1445.92 450.03,1445.81 450.88,1446.10"/>
    </edge>
    <edge id=":10048004341_2" function="internal">
        <lane id=":10048004341_2_0" index="0" disallow="tram rail_urban rail rail_electric rail_fast ship" speed="13.89" length="5.14" shape="443.48,1443.86 444.65,1442.96 445.45,1442.34 446.21,1441.69 447.28,1440.68"/>
        <lane id=":10048004341_2_1" index="1" disallow="tram rail_urban rail rail_electric rail_fast ship" speed="13.89" length="5.14" shape="445.45,1446.38 446.70,1445.42 447.55,1444.76 448.37,1444.05 449.51,1442.97"/>
    </edge>
    <edge id=":10048004341_4" function="internal">
        <lane id=":10048004341_4_0" index="0" allow="pedestrian bicycle" speed="5.39" length="6.24" width="2.00" shape="445.45,1446.38 447.18,1445.28 448.66,1444.86 449.90,1445.14 450.88,1446.10"/>
    </edge>
    <edge id=":10048004342_0" function="internal">
        <lane id=":10048004342_0_0" index="0" allow="pedestrian delivery bicycle" speed="3.65" length="4.67" shape="483.96,1430.20 485.39,1430.03 486.22,1430.38 486.43,1431.25 486.04,1432.64"/>
    </edge>
    <edge id=":10048004352_0" function="internal">
        <lane id=":10048004352_0_0" index="0" allow="pedestrian delivery bicycle" speed="3.65" length="4.67" shape="554.48,1605.04 554.63,1606.48 554.27,1607.30 553.40,1607.50 552.02,1607.10"/>
    </edge>
    <edge id=":1005176301_0" function="internal">
        <lane id=":1005176301_0_0" index="0" disallow="tram rail_urban rail rail_electric rail_fast ship" speed="3.65" length="4.67" shape="1335.89,686.03 1336.65,684.80 1337.43,684.37 1338.25,684.74 1339.09,685.91"/>
    </edge>
    <edge id=":1005176430_0" function="internal">
        <lane id=":1005176430_0_0" index="0" disallow="tram rail_urban rail rail_electric rail_fast ship" speed="6.18" length="7.87" shape="385.44,959.56 385.20,958.09 385.83,956.65 387.34,955.24 389.71,953.85"/>
    </edge>
    <edge id=":1005176430_1" function="internal">
        <lane id=":1005176430_1_0" index="0" disallow="tram rail_urban rail rail_electric rail_fast ship" speed="3.65" length="4.67" shape="385.44,959.56 385.67,958.14 386.23,957.44 387.13,957.48 388.35,958.24"/>
    </edge>
    <edge id=":1005176430_2" function="internal">
        <lane id=":1005176430_2_0" index="0" disallow="tram rail_urban rail rail_electric rail_fast ship" speed="13.89" length="9.51" shape="379.79,955.31 388.31,950.98"/>
        <lane id=":1005176430_2_1" index="1" disallow="tram rail_urban rail rail_electric rail_fast ship" speed="13.89" length="9.51" shape="381.29,958.14 389.71,953.85"/>
    </edge>
    <edge id=":1005176430_4" function="internal">
        <lane id=":1005176430_4_0" index="0" disallow="tram rail_urban rail rail_electric rail_fast ship" speed="6.02" length="7.93" shape="381.29,958.14 383.85,957.03 385.88,956.67 387.38,957.07 388.35,958.24"/>
    </edge>
    <edge id=":1005176505_0" function="internal">
        <lane id=":1005176505_0_0" index="0" disallow="tram rail_urban rail rail_electric rail_fast ship" speed="4.17" length="12.29" shape="1403.86,730.21 1391.79,732.53"/>
    </edge>
    <edge id=":1005176505_1" function="internal">
        <lane id=":1005176505_1_0" index="0" disallow="tram rail_urban rail rail_electric rail_fast ship" speed="3.65" length="1.44" shape="1403.86,730.21 1402.53,729.64"/>
    </edge>
    <edge id=":1005176505_6" function="internal">
        <lane id=":1005176505_6_0" index="0" disallow="tram rail_urban rail rail_electric rail_fast ship" speed="3.65" length="3.23" shape="1402.53,729.64 1402.00,728.92 1402.24,728.06 1403.28,727.06"/>
    </edge>
    <edge id=":1005176505_2" function="internal">
        <lane id=":1005176505_2_0" index="0" disallow="tram rail_urban rail rail_electric rail_fast ship" speed="4.17" length="9.04" shape="1397.04,722.40 1397.66,724.83 1398.90,726.41 1400.78,727.16 1403.28,727.06"/>
    </edge>
    <edge id=":1005176505_3" function="internal">
        <lane id=":1005176505_3_0" index="0" disallow="tram rail_urban rail rail_electric rail_fast ship" speed="4.17" length="12.67" shape="1397.04,722.40 1397.07,726.37 1396.20,729.38 1394.44,731.43 1391.79,732.53"/>
    </edge>
    <edge id=":1005176505_4" function="internal">
        <lane id=":1005176505_4_0" index="0" disallow="tram rail_urban rail rail_electric rail_fast ship" speed="4.17" length="12.34" shape="1391.16,729.39 1403.28,727.06"/>
    </edge>
    <edge id=":1005176505_5" function="internal">
        <lane id=":1005176505_5_0" index="0" disallow="tram rail_urban rail rail_electric rail_fast ship" speed="3.65" length="1.44" shape="1391.16,729.39 1392.50,729.94"/>
    </edge>
    <edge id=":1005176505_7" function="internal">
        <lane id=":1005176505_7_0" index="0" disallow="tram rail_urban rail rail_electric rail_fast ship" speed="3.65" length="3.23" shape="1392.50,729.94 1393.05,730.65 1392.81,731.51 1391.79,732.53"/>
    </edge>
    <edge id=":1005176601_0" function="internal">
        <lane id=":1005176601_0_0" index="0" disallow="tram rail_urban rail rail_electric rail_fast ship" speed="4.17" length="9.83" shape="1336.80,708.54 1336.34,698.73"/>
    </edge>
    <edge id=":1005176601_1" function="internal">
        <lane id=":1005176601_1_0" index="0" disallow="tram rail_urban rail rail_electric rail_fast ship" speed="4.17" length="10.73" shape="1336.80,708.54 1337.24,706.74 1338.82,705.35 1341.53,704.39 1345.39,703.85"/>
    </edge>
    <edge id=":1005176601_2" function="internal">
        <lane id=":1005176601_2_0" index="0" disallow="tram rail_urban rail rail_electric rail_fast ship" speed="3.65" length="4.67" shape="1336.80,708.54 1337.52,707.29 1338.29,706.84 1339.12,707.19 1339.99,708.34"/>
    </edge>
    <edge id=":1005176601_3" function="internal">
        <lane id=":1005176601_3_0" index="0" disallow="tram rail_urban rail rail_electric rail_fast ship" speed="4.17" length="9.04" shape="1339.54,698.61 1339.98,701.06 1341.10,702.75 1342.90,703.68 1345.39,703.85"/>
    </edge>
    <edge id=":1005176601_4" function="internal">
        <lane id=":1005176601_4_0" index="0" disallow="tram rail_urban rail rail_electric rail_fast ship" speed="4.17" length="9.74" shape="1339.54,698.61 1339.99,708.34"/>
    </edge>
    <edge id=":1005176601_5" function="internal">
        <lane id=":1005176601_5_0" index="0" disallow="tram rail_urban rail rail_electric rail_fast ship" speed="3.65" length="4.67" shape="1339.54,698.61 1338.78,699.84 1337.99,700.27 1337.18,699.90 1336.34,698.73"/>
    </edge>
    <edge id=":1005176622_0" function="internal">
        <lane id=":1005176622_0_0" index="0" disallow="tram rail_urban rail rail_electric rail_fast ship" speed="3.65" length="4.67" shape="408.49,1002.61 408.25,1004.03 407.69,1004.73 406.80,1004.69 405.57,1003.93"/>
    </edge>
    <edge id=":10082889521_0" function="internal">
        <lane id=":10082889521_0_0" index="0" allow="pedestrian delivery bicycle" speed="5.56" length="4.76" shape="761.84,1039.96 761.12,1038.75 760.62,1037.91 760.18,1037.05 759.63,1035.75"/>
    </edge>
    <edge id=":10082889521_1" function="internal">
        <lane id=":10082889521_1_0" index="0" allow="pedestrian delivery bicycle" speed="3.65" length="1.44" shape="761.84,1039.96 761.93,1038.52"/>
    </edge>
    <edge id=":10082889521_4" function="internal">
        <lane id=":10082889521_4_0" index="0" allow="pedestrian delivery bicycle" speed="3.65" length="3.23" shape="761.93,1038.52 762.43,1037.78 763.32,1037.72 764.61,1038.36"/>
    </edge>
    <edge id=":10082889521_2" function="internal">
        <lane id=":10082889521_2_0" index="0" allow="pedestrian delivery bicycle" speed="5.56" length="4.43" shape="762.56,1034.45 763.07,1035.66 763.48,1036.46 763.94,1037.23 764.61,1038.36"/>
    </edge>
    <edge id=":10082889521_3" function="internal">
        <lane id=":10082889521_3_0" index="0" allow="pedestrian delivery bicycle" speed="3.65" length="1.44" shape="762.56,1034.45 762.32,1035.87"/>
    </edge>
    <edge id=":10082889521_5" function="internal">
        <lane id=":10082889521_5_0" index="0" allow="pedestrian delivery bicycle" speed="3.65" length="3.23" shape="762.32,1035.87 761.75,1036.56 760.85,1036.52 759.63,1035.75"/>
    </edge>
    <edge id=":10082889522_0" function="internal">
        <lane id=":10082889522_0_0" index="0" allow="pedestrian delivery bicycle" speed="5.56" length="3.95" shape="584.14,1109.61 582.54,1106.00"/>
    </edge>
    <edge id=":10082889522_1" function="internal">
        <lane id=":10082889522_1_0" index="0" allow="pedestrian delivery bicycle" speed="3.65" length="1.44" shape="584.14,1109.61 584.37,1108.19"/>
    </edge>
    <edge id=":10082889522_4" function="internal">
        <lane id=":10082889522_4_0" index="0" allow="pedestrian delivery bicycle" speed="3.65" length="3.23" shape="584.37,1108.19 584.93,1107.49 585.83,1107.52 587.05,1108.28"/>
    </edge>
    <edge id=":10082889522_2" function="internal">
        <lane id=":10082889522_2_0" index="0" allow="pedestrian delivery bicycle" speed="5.56" length="3.85" shape="585.49,1104.76 587.05,1108.28"/>
    </edge>
    <edge id=":10082889522_3" function="internal">
        <lane id=":10082889522_3_0" index="0" allow="pedestrian delivery bicycle" speed="3.65" length="1.44" shape="585.49,1104.76 585.21,1106.18"/>
    </edge>
    <edge id=":10082889522_5" function="internal">
        <lane id=":10082889522_5_0" index="0" allow="pedestrian delivery bicycle" speed="3.65" length="3.23" shape="585.21,1106.18 584.63,1106.86 583.74,1106.80 582.54,1106.00"/>
    </edge>
    <edge id=":10082889523_0" function="internal">
        <lane id=":10082889523_0_0" index="0" allow="pedestrian delivery bicycle" speed="5.56" length="3.87" shape="531.15,1135.87 529.36,1132.44"/>
    </edge>
    <edge id=":10082889523_1" function="internal">
        <lane id=":10082889523_1_0" index="0" allow="pedestrian delivery bicycle" speed="3.65" length="1.44" shape="531.15,1135.87 531.32,1134.44"/>
    </edge>
    <edge id=":10082889523_4" function="internal">
        <lane id=":10082889523_4_0" index="0" allow="pedestrian delivery bicycle" speed="3.65" length="3.23" shape="531.32,1134.44 531.86,1133.73 532.75,1133.72 534.01,1134.44"/>
    </edge>
    <edge id=":10082889523_2" function="internal">
        <lane id=":10082889523_2_0" index="0" allow="pedestrian delivery bicycle" speed="5.56" length="4.02" shape="532.15,1130.87 534.01,1134.44"/>
    </edge>
    <edge id=":10082889523_3" function="internal">
        <lane id=":10082889523_3_0" index="0" allow="pedestrian delivery bicycle" speed="3.65" length="1.44" shape="532.15,1130.87 532.04,1132.31"/>
    </edge>
    <edge id=":10082889523_5" function="internal">
        <lane id=":10082889523_5_0" index="0" allow="pedestrian delivery bicycle" speed="3.65" length="3.23" shape="532.04,1132.31 531.54,1133.05 530.65,1133.10 529.36,1132.44"/>
    </edge>
    <edge id=":10082889524_0" function="internal">
        <lane id=":10082889524_0_0" index="0" disallow="tram rail_urban rail rail_electric rail_fast ship" speed="13.89" length="3.16" shape="443.04,1188.27 441.05,1185.81"/>
        <lane id=":10082889524_0_1" index="1" disallow="tram rail_urban rail rail_electric rail_fast ship" speed="13.89" length="3.16" shape="445.53,1186.26 443.55,1183.80"/>
    </edge>
    <edge id=":10082889531_0" function="internal">
        <lane id=":10082889531_0_0" index="0" disallow="tram rail_urban rail rail_electric rail_fast ship" speed="13.89" length="3.30" shape="425.50,1167.06 423.65,1164.32"/>
    </edge>
    <edge id=":10082889531_1" function="internal">
        <lane id=":10082889531_1_0" index="0" disallow="tram rail_urban rail rail_electric rail_fast ship" speed="13.89" length="3.30" shape="428.96,1160.75 430.81,1163.49"/>
        <lane id=":10082889531_1_1" index="1" disallow="tram rail_urban rail rail_electric rail_fast ship" speed="13.89" length="3.30" shape="426.31,1162.53 428.15,1165.27"/>
    </edge>
    <edge id=":10096781073_0" function="internal">
        <lane id=":10096781073_0_0" index="0" allow="pedestrian delivery bicycle" speed="3.65" length="4.67" shape="1602.81,1024.73 1602.71,1026.16 1602.20,1026.90 1601.31,1026.95 1600.03,1026.29"/>
    </edge>
    <edge id=":10096781075_0" function="internal">
        <lane id=":10096781075_0_0" index="0" allow="pedestrian delivery bicycle" speed="5.11" length="5.15" shape="1656.50,1024.68 1657.94,1024.82 1659.07,1024.50 1659.90,1023.70 1660.42,1022.43"/>
    </edge>
    <edge id=":10096781075_1" function="internal">
        <lane id=":10096781075_1_0" index="0" disallow="tram rail_urban rail rail_electric rail_fast ship" speed="13.89" length="5.53" shape="1658.87,1027.74 1659.41,1026.19 1659.75,1025.12 1660.03,1024.03 1660.42,1022.43"/>
    </edge>
    <edge id=":10096781078_0" function="internal">
        <lane id=":10096781078_0_0" index="0" allow="pedestrian delivery bicycle" speed="5.56" length="5.07" shape="1644.62,1019.46 1645.25,1020.65 1646.07,1021.58 1647.08,1022.27 1648.27,1022.70"/>
    </edge>
    <edge id=":10096781078_1" function="internal">
        <lane id=":10096781078_1_0" index="0" allow="pedestrian delivery bicycle" speed="5.56" length="5.49" shape="1644.62,1019.46 1645.12,1020.97 1645.19,1022.08 1644.99,1023.22 1644.66,1024.82"/>
    </edge>
    <edge id=":10096781084_0" function="internal">
        <lane id=":10096781084_0_0" index="0" allow="pedestrian delivery bicycle" speed="5.56" length="5.05" shape="1614.60,1002.46 1613.58,1001.44 1612.50,1000.87 1611.36,1000.73 1610.15,1001.02"/>
    </edge>
    <edge id=":10096781084_1" function="internal">
        <lane id=":10096781084_1_0" index="0" allow="pedestrian delivery bicycle" speed="5.56" length="9.18" shape="1614.60,1002.46 1612.91,999.92 1612.18,997.72 1612.40,995.85 1613.58,994.31"/>
    </edge>
    <edge id=":10096781084_2" function="internal">
        <lane id=":10096781084_2_0" index="0" allow="pedestrian delivery bicycle" speed="5.56" length="6.04" shape="1608.93,998.07 1610.49,997.26 1611.43,996.48 1612.27,995.54 1613.58,994.31"/>
    </edge>
    <edge id=":10096781089_0" function="internal">
        <lane id=":10096781089_0_0" index="0" allow="pedestrian delivery bicycle" speed="5.56" length="5.06" shape="1647.26,1028.26 1645.79,1028.16 1644.50,1028.31 1643.40,1028.70 1642.47,1029.33"/>
    </edge>
    <edge id=":10096781089_1" function="internal">
        <lane id=":10096781089_1_0" index="0" allow="pedestrian delivery bicycle" speed="5.56" length="4.98" shape="1644.62,1025.01 1644.37,1026.46 1644.06,1027.46 1643.50,1028.31 1642.47,1029.33"/>
    </edge>
    <edge id=":10315838432_0" function="internal">
        <lane id=":10315838432_0_0" index="0" allow="bicycle" speed="5.56" length="10.06" width="2.00" shape="860.44,789.29 857.86,779.57"/>
    </edge>
    <edge id=":10315838432_1" function="internal">
        <lane id=":10315838432_1_0" index="0" allow="bicycle" speed="5.41" length="6.95" width="2.00" shape="860.44,789.29 860.32,787.51 860.91,786.16 862.23,785.25 864.26,784.78"/>
    </edge>
    <edge id=":10315838432_2" function="internal">
        <lane id=":10315838432_2_0" index="0" allow="bicycle" speed="2.89" length="2.92" width="2.00" shape="860.44,789.29 860.75,788.44 861.18,788.08 861.72,788.21 862.39,788.82"/>
    </edge>
    <edge id=":10315838432_3" function="internal">
        <lane id=":10315838432_3_0" index="0" allow="bicycle" speed="5.37" length="5.38" width="2.00" shape="859.78,779.01 860.36,780.27 861.24,781.12 862.43,781.57 863.93,781.60"/>
    </edge>
    <edge id=":10315838432_4" function="internal">
        <lane id=":10315838432_4_0" index="0" allow="bicycle" speed="5.56" length="10.15" width="2.00" shape="859.78,779.01 862.39,788.82"/>
    </edge>
    <edge id=":10315838432_5" function="internal">
        <lane id=":10315838432_5_0" index="0" allow="bicycle" speed="2.89" length="2.92" width="2.00" shape="859.78,779.01 859.51,779.87 859.09,780.25 858.54,780.15 857.86,779.57"/>
    </edge>
    <edge id=":10315838432_6" function="internal">
        <lane id=":10315838432_6_0" index="0" allow="bicycle" speed="3.83" length="2.78" width="2.00" shape="858.95,782.12 857.86,779.57"/>
    </edge>
    <edge id=":10315838432_7" function="internal">
        <lane id=":10315838432_7_0" index="0" disallow="tram rail_urban rail rail_electric rail_fast ship" speed="8.33" length="5.01" shape="859.01,782.72 863.99,782.19"/>
        <lane id=":10315838432_7_1" index="1" disallow="tram rail_urban rail rail_electric rail_fast ship" speed="8.33" length="5.01" shape="859.34,785.90 864.33,785.37"/>
    </edge>
    <edge id=":10315838432_9" function="internal">
        <lane id=":10315838432_9_0" index="0" allow="bicycle" speed="4.90" length="4.19" width="2.00" shape="859.41,786.50 860.48,786.55 861.33,786.96 861.97,787.71 862.39,788.82"/>
    </edge>
    <edge id=":10595333289_0" function="internal">
        <lane id=":10595333289_0_0" index="0" allow="bicycle" speed="8.33" length="4.80" width="2.00" shape="926.60,1027.79 926.31,1026.40 926.15,1025.43 926.14,1024.45 926.29,1023.04"/>
    </edge>
    <edge id=":10595333289_1" function="internal">
        <lane id=":10595333289_1_0" index="0" allow="bicycle" speed="2.89" length="1.27" width="2.00" shape="926.60,1027.79 926.94,1026.95 927.23,1026.72"/>
    </edge>
    <edge id=":10595333289_4" function="internal">
        <lane id=":10595333289_4_0" index="0" allow="bicycle" speed="2.89" length="1.65" width="2.00" shape="927.23,1026.72 927.38,1026.61 927.92,1026.75 928.56,1027.38"/>
    </edge>
    <edge id=":10595333289_2" function="internal">
        <lane id=":10595333289_2_0" index="0" allow="bicycle" speed="8.33" length="4.12" width="2.00" shape="928.28,1023.31 928.15,1024.51 928.16,1025.35 928.30,1026.18 928.56,1027.38"/>
    </edge>
    <edge id=":10595333289_3" function="internal">
        <lane id=":10595333289_3_0" index="0" allow="bicycle" speed="2.89" length="1.20" width="2.00" shape="928.28,1023.31 927.68,1023.98 927.40,1024.08"/>
    </edge>
    <edge id=":10595333289_5" function="internal">
        <lane id=":10595333289_5_0" index="0" allow="bicycle" speed="2.89" length="1.72" width="2.00" shape="927.40,1024.08 927.15,1024.16 926.69,1023.85 926.29,1023.04"/>
    </edge>
    <edge id=":10595333292_0" function="internal">
        <lane id=":10595333292_0_0" index="0" allow="pedestrian bicycle" speed="2.89" length="2.92" width="2.00" shape="1030.02,1402.74 1030.89,1402.98 1031.28,1403.37 1031.21,1403.92 1030.66,1404.64"/>
    </edge>
    <edge id=":10693993659_0" function="internal">
        <lane id=":10693993659_0_0" index="0" disallow="tram rail_urban rail rail_electric rail_fast ship" speed="8.33" length="3.75" shape="1345.57,1387.55 1342.62,1389.85"/>
        <lane id=":10693993659_0_1" index="1" disallow="tram rail_urban rail rail_electric rail_fast ship" speed="8.33" length="3.75" shape="1343.60,1385.03 1340.64,1387.34"/>
    </edge>
    <edge id=":10693993659_2" function="internal">
        <lane id=":10693993659_2_0" index="0" allow="bicycle" speed="5.42" length="5.78" width="2.00" shape="1343.23,1384.55 1341.59,1385.63 1340.19,1386.13 1339.02,1386.04 1338.08,1385.37"/>
    </edge>
    <edge id=":10693993659_3" function="internal">
        <lane id=":10693993659_3_0" index="0" allow="bicycle" speed="4.52" length="4.30" width="2.00" shape="1339.61,1384.08 1340.62,1385.40 1341.19,1386.47 1341.32,1387.27 1341.01,1387.81"/>
    </edge>
    <edge id=":10693993659_4" function="internal">
        <lane id=":10693993659_4_0" index="0" allow="bicycle" speed="2.89" length="2.92" width="2.00" shape="1339.61,1384.08 1339.71,1384.98 1339.49,1385.49 1338.95,1385.62 1338.08,1385.37"/>
    </edge>
    <edge id=":10693993661_0" function="internal">
        <lane id=":10693993661_0_0" index="0" allow="bicycle" speed="2.89" length="2.92" width="2.00" shape="1218.30,1243.11 1218.20,1242.21 1218.42,1241.70 1218.96,1241.57 1219.83,1241.82"/>
    </edge>
    <edge id=":10693993663_0" function="internal">
        <lane id=":10693993663_0_0" index="0" disallow="tram rail_urban rail rail_electric rail_fast ship" speed="13.89" length="5.00" shape="1286.02,1331.31 1282.80,1327.48"/>
        <lane id=":10693993663_0_1" index="1" disallow="tram rail_urban rail rail_electric rail_fast ship" speed="13.89" length="5.00" shape="1288.47,1329.24 1285.24,1325.42"/>
    </edge>
    <edge id=":10710987851_0" function="internal">
        <lane id=":10710987851_0_0" index="0" disallow="tram rail_urban rail rail_electric rail_fast ship" speed="8.33" length="9.46" shape="1221.04,1730.11 1222.84,1739.40"/>
    </edge>
    <edge id=":10710987851_1" function="internal">
        <lane id=":10710987851_1_0" index="0" allow="pedestrian delivery bicycle" speed="6.14" length="7.85" shape="1221.04,1730.11 1221.41,1732.84 1221.23,1734.89 1220.49,1736.27 1219.19,1736.96"/>
    </edge>
    <edge id=":10710987851_2" function="internal">
        <lane id=":10710987851_2_0" index="0" allow="pedestrian delivery bicycle" speed="6.03" length="7.89" shape="1218.49,1733.84 1219.98,1733.91 1221.20,1734.86 1222.15,1736.69 1222.84,1739.40"/>
    </edge>
    <edge id=":10710987851_3" function="internal">
        <lane id=":10710987851_3_0" index="0" allow="pedestrian delivery bicycle" speed="3.65" length="4.67" shape="1218.49,1733.84 1219.83,1734.36 1220.40,1735.05 1220.18,1735.92 1219.19,1736.96"/>
    </edge>
    <edge id=":10788613524_0" function="internal">
        <lane id=":10788613524_0_0" index="0" allow="pedestrian delivery bicycle" speed="5.56" length="5.02" shape="481.53,1679.28 484.04,1683.64"/>
    </edge>
    <edge id=":10874430718_0" function="internal">
        <lane id=":10874430718_0_0" index="0" allow="pedestrian delivery bicycle" speed="6.06" length="7.82" shape="1530.05,1417.59 1529.40,1416.29 1529.61,1414.77 1530.69,1413.02 1532.64,1411.05"/>
    </edge>
    <edge id=":10874430718_1" function="internal">
        <lane id=":10874430718_1_0" index="0" allow="pedestrian delivery bicycle" speed="3.65" length="4.67" shape="1530.05,1417.59 1529.83,1416.17 1530.15,1415.33 1531.01,1415.08 1532.41,1415.43"/>
    </edge>
    <edge id=":10874430718_2" function="internal">
        <lane id=":10874430718_2_0" index="0" disallow="tram rail_urban rail rail_electric rail_fast ship" speed="8.33" length="9.54" shape="1523.45,1415.15 1530.53,1408.64"/>
        <lane id=":10874430718_2_1" index="1" disallow="tram rail_urban rail rail_electric rail_fast ship" speed="8.33" length="9.54" shape="1525.67,1417.45 1532.64,1411.05"/>
    </edge>
    <edge id=":10874430718_4" function="internal">
        <lane id=":10874430718_4_0" index="0" allow="pedestrian delivery bicycle" speed="6.06" length="7.82" shape="1525.67,1417.45 1527.80,1415.68 1529.64,1414.75 1531.17,1414.67 1532.41,1415.43"/>
    </edge>
    <edge id=":10874430719_0" function="internal">
        <lane id=":10874430719_0_0" index="0" allow="pedestrian delivery bicycle" speed="3.65" length="4.67" shape="1542.02,1425.91 1542.24,1427.33 1541.92,1428.17 1541.06,1428.42 1539.66,1428.07"/>
    </edge>
    <edge id=":1088607517_0" function="internal">
        <lane id=":1088607517_0_0" index="0" disallow="tram rail_urban rail rail_electric rail_fast ship" speed="8.33" length="4.95" shape="1792.03,1506.70 1787.20,1507.92"/>
        <lane id=":1088607517_0_1" index="1" disallow="tram rail_urban rail rail_electric rail_fast ship" speed="8.33" length="4.95" shape="1791.22,1503.60 1786.45,1504.81"/>
    </edge>
    <edge id=":10908231603_0" function="internal">
        <lane id=":10908231603_0_0" index="0" allow="pedestrian delivery bicycle" speed="3.65" length="4.67" shape="1145.64,1694.58 1146.97,1695.12 1147.53,1695.83 1147.30,1696.69 1146.28,1697.72"/>
    </edge>
    <edge id=":10908311806_0" function="internal">
        <lane id=":10908311806_0_0" index="0" disallow="tram rail_urban rail rail_electric rail_fast ship" speed="8.33" length="5.55" shape="1114.67,1707.32 1113.71,1701.85"/>
    </edge>
    <edge id=":10908311806_1" function="internal">
        <lane id=":10908311806_1_0" index="0" allow="pedestrian delivery bicycle" speed="6.15" length="7.78" shape="1114.67,1707.32 1114.39,1704.58 1114.63,1702.54 1115.38,1701.19 1116.64,1700.53"/>
    </edge>
    <edge id=":10908311806_2" function="internal">
        <lane id=":10908311806_2_0" index="0" allow="pedestrian delivery bicycle" speed="4.83" length="4.58" shape="1117.29,1703.66 1115.89,1703.79 1114.83,1703.53 1114.10,1702.88 1113.71,1701.85"/>
    </edge>
    <edge id=":10908311806_3" function="internal">
        <lane id=":10908311806_3_0" index="0" allow="pedestrian delivery bicycle" speed="3.65" length="4.67" shape="1117.29,1703.66 1115.95,1703.12 1115.40,1702.42 1115.63,1701.55 1116.64,1700.53"/>
    </edge>
    <edge id=":10910585354_0" function="internal">
        <lane id=":10910585354_0_0" index="0" allow="pedestrian delivery bicycle" speed="3.65" length="4.67" shape="1644.14,746.04 1643.58,747.37 1642.87,747.91 1642.01,747.67 1641.00,746.64"/>
    </edge>
    <edge id=":10910585355_0" function="internal">